data_New_Crystal
_audit_creation_method         'Generated by mcu on 2019/05/02 - 21:19:23'
_cell_length_a        6.4622998238
_cell_length_b        6.4622998238
_cell_length_c        6.4622998238
_cell_angle_alpha       90.0000000000
_cell_angle_beta        90.0000000000
_cell_angle_gamma       90.0000000000

_symmetry_space_group_name_H-M     'F-43m'
_symmetry_Int_Tables_number        216
loop_
_symmetry_equiv_pos_as_xyz
+x,+y,+z
+y,-x+1/2,-z+1/2
-x,-y,+z
-y,+x,-z
+x,-y+1/2,-z+1/2
+y,+x,+z
-x,+y,-z
-y,-x,+z
+z,+x,+y
-z,+y,-x
+z,-x+1/2,-y+1/2
-z,-y,+x
-z,+x,-y
+z,+y,+x
-z,-x,+y
+z,-y+1/2,-x+1/2
+y,+z,+x
-x,-z,+y
-y,+z,-x
+x,-z+1/2,-y+1/2
-y,-z,+x
+x,+z,+y
+y,-z+1/2,-x+1/2
-x,+z,-y
+x,+y+1/2,+z+1/2
+y,-x,-z
-x,-y+1/2,+z+1/2
-y,+x+1/2,-z+1/2
+x,-y,-z
+y,+x+1/2,+z+1/2
-x,+y+1/2,-z+1/2
-y,-x+1/2,+z+1/2
+z,+x+1/2,+y+1/2
-z,+y+1/2,-x+1/2
+z,-x,-y
-z,-y+1/2,+x+1/2
-z,+x+1/2,-y+1/2
+z,+y+1/2,+x+1/2
-z,-x+1/2,+y+1/2
+z,-y,-x
+y,+z+1/2,+x+1/2
-x,-z+1/2,+y+1/2
-y,+z+1/2,-x+1/2
+x,-z,-y
-y,-z+1/2,+x+1/2
+x,+z+1/2,+y+1/2
+y,-z,-x
-x,+z+1/2,-y+1/2
+x+1/2,+y,+z+1/2
+y+1/2,-x+1/2,-z
-x+1/2,-y,+z+1/2
-y+1/2,+x,-z+1/2
+x+1/2,-y+1/2,-z
+y+1/2,+x,+z+1/2
-x+1/2,+y,-z+1/2
-y+1/2,-x,+z+1/2
+z+1/2,+x,+y+1/2
-z+1/2,+y,-x+1/2
+z+1/2,-x+1/2,-y
-z+1/2,-y,+x+1/2
-z+1/2,+x,-y+1/2
+z+1/2,+y,+x+1/2
-z+1/2,-x,+y+1/2
+z+1/2,-y+1/2,-x
+y+1/2,+z,+x+1/2
-x+1/2,-z,+y+1/2
-y+1/2,+z,-x+1/2
+x+1/2,-z+1/2,-y
-y+1/2,-z,+x+1/2
+x+1/2,+z,+y+1/2
+y+1/2,-z+1/2,-x
-x+1/2,+z,-y+1/2
+x+1/2,+y+1/2,+z
+y+1/2,-x,-z+1/2
-x+1/2,-y+1/2,+z
-y+1/2,+x+1/2,-z
+x+1/2,-y,-z+1/2
+y+1/2,+x+1/2,+z
-x+1/2,+y+1/2,-z
-y+1/2,-x+1/2,+z
+z+1/2,+x+1/2,+y
-z+1/2,+y+1/2,-x
+z+1/2,-x,-y+1/2
-z+1/2,-y+1/2,+x
-z+1/2,+x+1/2,-y
+z+1/2,+y+1/2,+x
-z+1/2,-x+1/2,+y
+z+1/2,-y,-x+1/2
+y+1/2,+z+1/2,+x
-x+1/2,-z+1/2,+y
-y+1/2,+z+1/2,-x
+x+1/2,-z,-y+1/2
-y+1/2,-z+1/2,+x
+x+1/2,+z+1/2,+y
+y+1/2,-z,-x+1/2
-x+1/2,+z+1/2,-y

loop_
_atom_site_label
_atom_site_type_symbol
_atom_site_fract_x
_atom_site_fract_y
_atom_site_fract_z
Te Te    0.2500000000     0.2500000000     0.2500000000
Te Te    0.2500000000     0.2500000000     0.2500000000
Te Te    0.2500000000     0.2500000000     0.2500000000
Te Te    0.2500000000     0.2500000000     0.2500000000
Hg Hg    0.0000000000     0.0000000000     0.0000000000
Hg Hg    0.0000000000     0.0000000000     0.0000000000
Hg Hg    0.0000000000     0.0000000000     0.0000000000
Hg Hg    0.0000000000     0.0000000000     0.0000000000
