data_New_Crystal
_audit_creation_method         'generated by CrystalMaker 9.2.7'
_cell_length_a                   5.0000(0)
_cell_length_b                   6.0000(0)
_cell_length_c                   7.0000(0)
_cell_angle_alpha               50.0000(0)
_cell_angle_beta                90.0000(0)
_cell_angle_gamma               90.0000(0)

_symmetry_space_group_name_H-M     'P 2'
_symmetry_Int_Tables_number         3
_symmetry_cell_setting             monoclinic
loop_
_symmetry_equiv_pos_as_xyz
'+x,+y,+z'
'+x,-y,-z'

loop_
_atom_site_label
_atom_site_type_symbol
_atom_site_occupancy
_atom_site_fract_x
_atom_site_fract_y
_atom_site_fract_z
   Si1    Si 1.0000      0.1000    0.2000    0.3000
    T2    Si 1.0000      0.4000    0.4000    0.4000

